CM --- NEC2 Input File created or edited by FreeCAD NEC export plugin by LuboJ. ---
CE
GW    1    1    -2.71596    2.73497    1.0    -2.71596    2.73497    1.035    0.001e-3
GW    2    1    53.0024    2.73497    1.0    53.0024    2.73497    1.035    0.001e-3
GW    3    1    -2.71596    2.73497    1.0    53.0024    2.73497    1.0    0.001e-3
GW    4    1    -2.71596    2.73497    1.035    53.0024    2.73497    1.035    0.001e-3
GW    5    1    53.0024    -22.35508    1.0    53.0024    -22.35508    1.035    0.001e-3
GW    6    1    53.0024    2.73497    1.0    53.0024    -22.35508    1.0    0.001e-3
GW    7    1    53.0024    2.73497    1.035    53.0024    -22.35508    1.035    0.001e-3
GW    8    1    -2.71596    -22.35508    1.0    -2.71596    -22.35508    1.035    0.001e-3
GW    9    1    53.0024    -22.35508    1.0    -2.71596    -22.35508    1.0    0.001e-3
GW    10    1    53.0024    -22.35508    1.035    -2.71596    -22.35508    1.035    0.001e-3
GW    11    1    -2.71596    -22.35508    1.0    -2.71596    2.73497    1.0    0.001e-3
GW    12    1    -2.71596    -22.35508    1.035    -2.71596    2.73497    1.035    0.001e-3
GE     0     0     0      0  0.00000E+00  0.00000E+00  0.00000E+00  0.00000E+00  0.00000E+00  0.00000E+00
EN     0     0     0      0  0.00000E+00  0.00000E+00  0.00000E+00  0.00000E+00  0.00000E+00  0.00000E+00
